Version 4.1
SHEET 1 1604 680
WIRE -304 112 -304 48
WIRE -96 144 -96 96
WIRE 80 144 -96 144
WIRE 240 144 240 80
WIRE 240 144 192 144
WIRE 544 144 544 80
WIRE 640 144 544 144
WIRE 816 144 816 80
WIRE 816 144 752 144
WIRE -48 176 -96 176
WIRE 80 176 32 176
WIRE 240 176 192 176
WIRE 496 176 464 176
WIRE 640 176 576 176
WIRE 816 176 752 176
WIRE -304 256 -304 192
WIRE 816 256 816 176
WIRE -96 288 -96 176
WIRE 240 288 240 176
WIRE 464 288 464 176
FLAG -96 368 0
FLAG -96 176 VinHCT
FLAG -96 96 VoutHCT
FLAG -304 256 0
FLAG -304 48 Vcc
FLAG 240 288 0
FLAG 240 80 Vcc
FLAG 464 368 0
FLAG 464 176 VinLS
FLAG 544 80 VoutLS
FLAG 816 256 0
FLAG 816 80 Vcc
SYMBOL voltage -96 272 R0
WINDOW 123 0 0 Left 0
WINDOW 39 0 0 Left 0
SYMATTR InstName V1
SYMATTR Value PULSE(0 5 0s 0s 0s 0.000005s 0.00001s)
SYMBOL voltage -304 96 R0
WINDOW 123 0 0 Left 0
WINDOW 39 0 0 Left 0
SYMATTR InstName V2
SYMATTR Value 5
SYMBOL voltage 464 272 R0
WINDOW 123 0 0 Left 0
WINDOW 39 0 0 Left 0
SYMATTR InstName V3
SYMATTR Value PULSE(0 5 0s 0s 0s 0.000005s 0.00001s)
SYMBOL SN74HCT04 128 160 R0
SYMATTR InstName U1
SYMBOL SN74LS04 688 160 R0
SYMATTR InstName U2
SYMBOL res 48 160 R90
WINDOW 0 0 56 VBottom 2
WINDOW 3 32 56 VTop 2
SYMATTR InstName R1
SYMATTR Value 1R
SYMBOL res 592 160 R90
WINDOW 0 0 56 VBottom 2
WINDOW 3 32 56 VTop 2
SYMATTR InstName R2
SYMATTR Value 1R
TEXT -336 392 Left 2 !.tran 0.00005s
TEXT -984 200 Left 2 !.meas tran vmax max v(vouthct)\n.meas tran t10a when v(vouthct)=0.1*vmax rise=1\n.meas tran t90a when v(vouthct)=0.9*vmax rise=1\n.meas tran t10b when v(vouthct)=0.1*vmax fall=1\n.meas tran t90b when v(vouthct)=0.9*vmax fall=1\n.meas trise param t90a-t10a\n.meas tfall param t90b-t10b
TEXT 992 232 Left 2 !.meas tran vmax2 max v(voutls)\n.meas tran t10a2 when v(voutls)=0.1*vmax2 rise=1\n.meas tran t90a2 when v(voutls)=0.9*vmax2 rise=1\n.meas tran t10b2 when v(voutls)=0.1*vmax2 fall=1\n.meas tran t90b2 when v(voutls)=0.9*vmax2 fall=1\n.meas t2rise param t90a2-t10a2\n.meas t2fall param t90b2-t10b2
